
**** 03/22/15 12:50:00 ******* PSpice 16.3.0 (June 2009) ****** ID# 0 ********

 ** Profile: "SCHEMATIC1-spice2"  [ Z:\ECE255\spice 2-pspicefiles\schematic1\spice2.sim ] 


 ****     CIRCUIT DESCRIPTION


******************************************************************************




** Creating circuit file "spice2.cir" 
** WARNING: THIS AUTOMATICALLY GENERATED FILE MAY BE OVERWRITTEN BY SUBSEQUENT SIMULATIONS

*Libraries: 
* Profile Libraries :
* Local Libraries :
.LIB "../../../spice 2-pspicefiles/spice 2.lib" 
* From [PSPICE NETLIST] section of C:\Program Files\Cadence\SPB_16.3\tools\PSpice\PSpice.ini file:
.lib "nom.lib" 

*Analysis directives: 
.AC DEC 10 10 1M
--------------$
ERROR -- Invalid value
.PROBE V(alias(*)) I(alias(*)) W(alias(*)) D(alias(*)) NOISE(alias(*)) 
.INC "..\SCHEMATIC1.net" 



**** INCLUDING SCHEMATIC1.net ****
* source SPICE 2
Q_Q1         N00309 VB N00305 Q2N3904
R_R1         VB N00276  6.5k TC=0,0 
R_RC         N00276 N00309  500 TC=0,0 
R_RE         0 N00305  450 TC=0,0 
R_R2         VB 0  2.5k TC=0,0 
R_RL         N00345 0  5k TC=0,0 
R_Rs         VS N01310  500 TC=0,0 
V_V2         N00276 0 DC 5  
C_C4         N00309 N00345  1M  TC=0,0 
C_C5         N01310 VB  1M  TC=0,0 
V_V3         VS 0 DC 0Vdc AC 1mV 

**** RESUMING spice2.cir ****
.END
